/batch
/config,noeldb,1     ! force off writing results to database
*get,_wallstrt,active,,time,wall
! ANSYS input file written by Workbench version 16.0 RELEASE
! File used for geometry attach: E:\coding\ANSYS code\Chapter_8\Block_contact_8_3_files\dp0\Geom\DM\Geom.agdb
/title,Block_contact_8_3--Transient (B5)
*DIM,_wb_ProjectScratch_dir,string,248
_wb_ProjectScratch_dir(1) = 'E:\coding\ANSYS code\Chapter_8\_ProjectScratch\Scr3193\'
*DIM,_wb_SolverFiles_dir,string,248
_wb_SolverFiles_dir(1) = 'E:\coding\ANSYS code\Chapter_8\Block_contact_8_3_files\dp0\SYS\MECH\'
*DIM,_wb_userfiles_dir,string,248
_wb_userfiles_dir(1) = 'E:\coding\ANSYS code\Chapter_8\Block_contact_8_3_files\user_files\'
/com,--- Data in consistent MKS units. See Solving Units in the help system for more information.
/units,MKS
/nopr
/wb,file,start              !  signify a WB generated input file
/prep7
! Turn off shape checking because checks already performed inside WB mesher.
! See help system for more information.
SHPP,OFF,,NOWARN
/nolist
etcon,set             ! allow ANSYS to choose best KEYOP's for 180x elements
/com,*********** Nodes for the whole assembly ***********
nblock,3
(1i9,3e20.9e3)
        1    3.600000000E+000    4.000000000E-001    4.400000000E+000
        2    3.600000000E+000    4.000000000E-001    4.800000000E+000
        3    3.600000000E+000    4.000000000E-001    5.200000000E+000
        4    3.600000000E+000    4.000000000E-001    5.600000000E+000
        5    3.600000000E+000    4.000000000E-001    6.000000000E+000
        6    3.600000000E+000    4.000000000E-001    6.400000000E+000
        7    3.600000000E+000    4.000000000E-001    6.800000000E+000
        8    3.600000000E+000    4.000000000E-001    7.200000000E+000
        9    3.600000000E+000    4.000000000E-001    7.600000000E+000
       10    3.200000000E+000    4.000000000E-001    4.400000000E+000
       11    3.200000000E+000    4.000000000E-001    4.800000000E+000
       12    3.200000000E+000    4.000000000E-001    5.200000000E+000
       13    3.200000000E+000    4.000000000E-001    5.600000000E+000
       14    3.200000000E+000    4.000000000E-001    6.000000000E+000
       15    3.200000000E+000    4.000000000E-001    6.400000000E+000
       16    3.200000000E+000    4.000000000E-001    6.800000000E+000
       17    3.200000000E+000    4.000000000E-001    7.200000000E+000
       18    3.200000000E+000    4.000000000E-001    7.600000000E+000
       19    2.800000000E+000    4.000000000E-001    4.400000000E+000
       20    2.800000000E+000    4.000000000E-001    4.800000000E+000
! ... 23763 like lines cut
/wb,elem,start            !  set before creation of elements
/com,*********** Elements for Body 1 "Solid1" ***********
et,1,186
keyo,1,2,1          ! set full integration on SOLID186
eblock,19,solid,,4000
(19i9)
        1        1        1        1        0        0        0        0       20        0     1001     4962     9441     9424     9375     8471     9514     9423     9422
     9928    22846    22788     9927    20932    22844    22842    20931     9926    22888    22843    22787
        1        1        1        1        0        0        0        0       20        0     1002     4962     9375     9424     9441     4963     9376     9425     9450
     9927    22788    22846     9928     9932    22790    22848     9933     9923    22786    22845    22887
        1        1        1        1        0        0        0        0       20        0     1003     4963     9376     9425     9450     4964     9377     9426     9459
     9932    22790    22848     9933     9937    22792    22850     9938     9929    22789    22847    22906
        1        1        1        1        0        0        0        0       20        0     1004     4964     9377     9426     9459     4965     9378     9427     9468
     9937    22792    22850     9938     9942    22794    22852     9943     9934    22791    22849    22924
        1        1        1        1        0        0        0        0       20        0     1005     4965     9378     9427     9468     4966     9379     9428     9477
     9942    22794    22852     9943     9947    22796    22854     9948     9939    22793    22851    22942
        1        1        1        1        0        0        0        0       20        0     1006     4966     9379     9428     9477     4967     9380     9429     9486
     9947    22796    22854     9948     9952    22798    22856     9953     9944    22795    22853    22960
        1        1        1        1        0        0        0        0       20        0     1007     4967     9380     9429     9486     4968     9381     9430     9495
     9952    22798    22856     9953     9957    22800    22858     9958     9949    22797    22855    22978
        1        1        1        1        0        0        0        0       20        0     1008     4968     9381     9430     9495     4969     9382     9431     9504
     9957    22800    22858     9958     9962    22802    22860     9963     9954    22799    22857    22996
        1        1        1        1        0        0        0        0       20        0     1009     4969     9382     9431     9504     4970     9383     9432     9513
     9962    22802    22860     9963     9967    22803    22861     9968     9959    22801    22859    23014
        1        1        1        1        0        0        0        0       20        0     1010     4970     9383     9432     9513     8472     8873     8872     8871
     9967    22803    22861     9968    20936    21782    21780    20935     9966    21785    21783    21781
! ... 7981 like lines cut
!Material Id = {8158387D-5C61-4DAB-B697-25993220357D}
/com,*********** Elements for Body 2 "Solid2" ***********
et,2,186
keyo,2,2,1          ! set full integration on SOLID186
eblock,19,solid,,1000
(19i9)
        2        2        2        2        0        0        0        0       20        0        1        1     1214     1233     1242      810     1231     1232     1323
     1336     4757     4785     1337     3940     4781     4783     3941     1335     4756     4782     4803
        2        2        2        2        0        0        0        0       20        0        2        1     1242     1233     1214        2     1251     1234     1205
     1337     4785     4757     1336     1342     4787     4739     1341     1332     4802     4784     4738
        2        2        2        2        0        0        0        0       20        0        3        2     1251     1234     1205        3     1260     1235     1196
     1342     4787     4739     1341     1347     4789     4721     1346     1338     4828     4786     4720
        2        2        2        2        0        0        0        0       20        0        4        3     1260     1235     1196        4     1269     1236     1187
     1347     4789     4721     1346     1352     4791     4703     1351     1343     4845     4788     4702
        2        2        2        2        0        0        0        0       20        0        5        4     1269     1236     1187        5     1278     1237     1178
     1352     4791     4703     1351     1357     4793     4685     1356     1348     4862     4790     4684
        2        2        2        2        0        0        0        0       20        0        6        5     1278     1237     1178        6     1287     1238     1169
     1357     4793     4685     1356     1362     4795     4667     1361     1353     4879     4792     4666
        2        2        2        2        0        0        0        0       20        0        7        6     1287     1238     1169        7     1296     1239     1160
     1362     4795     4667     1361     1367     4797     4649     1366     1358     4896     4794     4648
        2        2        2        2        0        0        0        0       20        0        8        7     1296     1239     1160        8     1305     1240     1151
     1367     4797     4649     1366     1372     4799     4631     1371     1363     4913     4796     4630
        2        2        2        2        0        0        0        0       20        0        9        8     1305     1240     1151        9     1314     1241     1142
     1372     4799     4631     1371     1377     4800     4613     1376     1368     4930     4798     4612
        2        2        2        2        0        0        0        0       20        0       10        9     1314     1241     1142      811      900      901      902
     1377     4800     4613     1376     3944     4139     4141     3945     1375     4140     4142     4144
! ... 1981 like lines cut
!Material Id = {4BE53CA6-287B-46EE-854E-C9FE05DDEA63}
/wb,elem,end               !  done creating elements
/com,*********** Send User Defined Coordinate System(s) ***********
csys,0
toffst,273.15,  ! Temperature offset from absolute zero
/com,*********** Set Reference Temperature ***********
tref,22.
/wb,mat,start              !  starting to send materials
/com,*********** Send Materials ***********
MP,DENS,1,2770,	! kg m^-3
MP,ALPX,1,2.3e-05,	! C^-1
MP,C,1,875,	! J kg^-1 C^-1
MPTEMP,,,,,,,,
MPTEMP,1,-100
MPTEMP,2,0
MPTEMP,3,100
MPTEMP,4,200
MPDATA,KXX,1, ,114,144,165,175,	! W m^-1 C^-1
MPTEMP,,,,,,,,
MPTEMP,,,,,,,,
MPTEMP,1,0
MPTEMP,2,20
MPTEMP,3,100
MPDATA,RSVX,1, ,2.43e-08,2.67e-08,3.63e-08,	! kg m^3 A^-2 s^-3
MPTEMP,,,,,,,,
MP,EX,1,71000000000,	! Pa
MP,NUXY,1,0.33,
MP,MURX,1,1,

MP,DENS,2,2770,	! kg m^-3
MP,ALPX,2,2.3e-05,	! C^-1
MP,C,2,875,	! J kg^-1 C^-1
MPTEMP,,,,,,,,
MPTEMP,1,-100
MPTEMP,2,0
MPTEMP,3,100
MPTEMP,4,200
MPDATA,KXX,2, ,114,144,165,175,	! W m^-1 C^-1
MPTEMP,,,,,,,,
MPTEMP,,,,,,,,
MPTEMP,1,0
MPTEMP,2,20
MPTEMP,3,100
MPDATA,RSVX,2, ,2.43e-08,2.67e-08,3.63e-08,	! kg m^3 A^-2 s^-3
MPTEMP,,,,,,,,
MP,EX,2,71000000000,	! Pa
MP,NUXY,2,0.33,
MP,MURX,2,1,

/wb,mat,end                !  done sending materials
!************************* Model Summary ********************
!Solid1,	Aluminum Alloy,	matid,	1
!Solid2,	Aluminum Alloy,	matid,	2
!************************* End Model Summary ********************
! get the diagonal of the bounding box. Needed later for other things
*get,_xmin,node,,mnloc,x
*get,_ymin,node,,mnloc,y
*get,_zmin,node,,mnloc,z
*get,_xmax,node,,mxloc,x
*get,_ymax,node,,mxloc,y
*get,_zmax,node,,mxloc,z
_ASMDIAG=(_xmax-_xmin)*(_xmax-_xmin)+(_ymax-_ymin)*(_ymax-_ymin)+(_zmax-_zmin)*(_zmax-_zmin)
_ASMDIAG=SQRT(_ASMDIAG)
/wb,contact,start          !  starting to send contact
/com,*********** Create Contact "Frictional - Solid2 To Solid1" ***********
/com,            Real Constant Set For Above Contact Is 4 & 3 
*set,tid,4
*set,cid,3
r,tid
r,cid
et,tid,170
et,cid,174
eblock,10,,,100
(15i9)
     5001        4        4        4        0     1323      810     1231     1232     3941     3940     4781     4783
     5002        4        4        4        0      810      801     1230     1231     3921     3922     4780     3940
     5003        4        4        4        0      801      792     1229     1230     3902     3903     4779     3922
     5004        4        4        4        0      792      783     1228     1229     3883     3884     4778     3903
     5005        4        4        4        0      783      774     1227     1228     3864     3865     4777     3884
     5006        4        4        4        0      774      765     1226     1227     3845     3846     4776     3865
     5007        4        4        4        0      765      756     1225     1226     3826     3827     4775     3846
     5008        4        4        4        0      756      747     1224     1225     3807     3808     4774     3827
     5009        4        4        4        0      747      738     1223     1224     3787     3789     4773     3808
     5010        4        4        4        0      738     1131     1132     1223     3788     4591     4593     3789
     5011        4        4        4        0     1324      809      810     1323     3939     3938     3941     4954
     5012        4        4        4        0      809      800      801      810     3920     3919     3921     3938
     5013        4        4        4        0      800      791      792      801     3901     3900     3902     3919
     5014        4        4        4        0      791      782      783      792     3882     3881     3883     3900
     5015        4        4        4        0      782      773      774      783     3863     3862     3864     3881
     5016        4        4        4        0      773      764      765      774     3844     3843     3845     3862
     5017        4        4        4        0      764      755      756      765     3825     3824     3826     3843
     5018        4        4        4        0      755      746      747      756     3806     3805     3807     3824
     5019        4        4        4        0      746      737      738      747     3785     3784     3787     3805
     5020        4        4        4        0      737     1130     1131      738     3786     4590     3788     3784
! ... 81 like lines cut
eblock,10,,,100
(15i9)
     5101        3        3        3        0     1323      810     1231     1232     3941     3940     4781     4783
     5102        3        3        3        0      810      801     1230     1231     3921     3922     4780     3940
     5103        3        3        3        0      801      792     1229     1230     3902     3903     4779     3922
     5104        3        3        3        0      792      783     1228     1229     3883     3884     4778     3903
     5105        3        3        3        0      783      774     1227     1228     3864     3865     4777     3884
     5106        3        3        3        0      774      765     1226     1227     3845     3846     4776     3865
     5107        3        3        3        0      765      756     1225     1226     3826     3827     4775     3846
     5108        3        3        3        0      756      747     1224     1225     3807     3808     4774     3827
     5109        3        3        3        0      747      738     1223     1224     3787     3789     4773     3808
     5110        3        3        3        0      738     1131     1132     1223     3788     4591     4593     3789
     5111        3        3        3        0     1324      809      810     1323     3939     3938     3941     4954
     5112        3        3        3        0      809      800      801      810     3920     3919     3921     3938
     5113        3        3        3        0      800      791      792      801     3901     3900     3902     3919
     5114        3        3        3        0      791      782      783      792     3882     3881     3883     3900
     5115        3        3        3        0      782      773      774      783     3863     3862     3864     3881
     5116        3        3        3        0      773      764      765      774     3844     3843     3845     3862
     5117        3        3        3        0      764      755      756      765     3825     3824     3826     3843
     5118        3        3        3        0      755      746      747      756     3806     3805     3807     3824
     5119        3        3        3        0      746      737      738      747     3785     3784     3787     3805
     5120        3        3        3        0      737     1130     1131      738     3786     4590     3788     3784
! ... 81 like lines cut
eblock,10,,,400
(15i9)
     5201        3        4        3        0     8871     8472     8873     8872    20935    20936    21782    21780
     5202        3        4        3        0     8870     8511     8472     8871    21053    20934    20935    21778
     5203        3        4        3        0     8869     8550     8511     8870    21132    21052    21053    21776
     5204        3        4        3        0     8868     8589     8550     8869    21211    21131    21132    21774
     5205        3        4        3        0     8867     8628     8589     8868    21290    21210    21211    21772
     5206        3        4        3        0     8866     8667     8628     8867    21369    21289    21290    21770
     5207        3        4        3        0     8865     8706     8667     8866    21448    21368    21369    21768
     5208        3        4        3        0     8864     8745     8706     8865    21527    21447    21448    21766
     5209        3        4        3        0     8863     8784     8745     8864    21606    21526    21527    21764
     5210        3        4        3        0     8862     8861     8784     8863    21760    21605    21606    21762
     5211        3        4        3        0     8472     8473     8874     8873    20933    20939    21784    20936
     5212        3        4        3        0     8511     8512     8473     8472    21051    20938    20933    20934
     5213        3        4        3        0     8550     8551     8512     8511    21130    21055    21051    21052
     5214        3        4        3        0     8589     8590     8551     8550    21209    21134    21130    21131
     5215        3        4        3        0     8628     8629     8590     8589    21288    21213    21209    21210
     5216        3        4        3        0     8667     8668     8629     8628    21367    21292    21288    21289
     5217        3        4        3        0     8706     8707     8668     8667    21446    21371    21367    21368
     5218        3        4        3        0     8745     8746     8707     8706    21525    21450    21446    21447
     5219        3        4        3        0     8784     8785     8746     8745    21604    21529    21525    21526
     5220        3        4        3        0     8861     8860     8785     8784    21758    21608    21604    21605
! ... 381 like lines cut
eblock,10,,,400
(15i9)
     5601        4        3        4        0     8871     8472     8873     8872    20935    20936    21782    21780
     5602        4        3        4        0     8870     8511     8472     8871    21053    20934    20935    21778
     5603        4        3        4        0     8869     8550     8511     8870    21132    21052    21053    21776
     5604        4        3        4        0     8868     8589     8550     8869    21211    21131    21132    21774
     5605        4        3        4        0     8867     8628     8589     8868    21290    21210    21211    21772
     5606        4        3        4        0     8866     8667     8628     8867    21369    21289    21290    21770
     5607        4        3        4        0     8865     8706     8667     8866    21448    21368    21369    21768
     5608        4        3        4        0     8864     8745     8706     8865    21527    21447    21448    21766
     5609        4        3        4        0     8863     8784     8745     8864    21606    21526    21527    21764
     5610        4        3        4        0     8862     8861     8784     8863    21760    21605    21606    21762
     5611        4        3        4        0     8472     8473     8874     8873    20933    20939    21784    20936
     5612        4        3        4        0     8511     8512     8473     8472    21051    20938    20933    20934
     5613        4        3        4        0     8550     8551     8512     8511    21130    21055    21051    21052
     5614        4        3        4        0     8589     8590     8551     8550    21209    21134    21130    21131
     5615        4        3        4        0     8628     8629     8590     8589    21288    21213    21209    21210
     5616        4        3        4        0     8667     8668     8629     8628    21367    21292    21288    21289
     5617        4        3        4        0     8706     8707     8668     8667    21446    21371    21367    21368
     5618        4        3        4        0     8745     8746     8707     8706    21525    21450    21446    21447
     5619        4        3        4        0     8784     8785     8746     8745    21604    21529    21525    21526
     5620        4        3        4        0     8861     8860     8785     8784    21758    21608    21604    21605
! ... 381 like lines cut
keyo,cid,8,2               ! auto create asymmetric contact (from Program Controlled setting)
keyo,cid,10,2              ! adjust contact stiffness each NR iteration (from Program Controlled setting)
keyo,cid,12,0              ! standard contact
mp,mu,cid,0.2	! unitless
keyo,cid,2,0               ! augmented Lagrange (from Program Controlled setting)
keyo,cid,4,0               ! on Gauss point (from Program Controlled setting)
keyo,cid,9,0               ! use real geometry with stepped effects
keyo,cid,7,0               ! No Prediction
rmod,tid,3,1.	! FKN
rmod,tid,5,0.	! ICONT
rmod,tid,6,0.	! PINB
rmod,tid,10,0.	! CNOF
rmod,tid,12,0.	! FKT
rmod,tid,36,36	! WB DSID
rmod,cid,3,1.	! FKN
rmod,cid,5,0.	! ICONT
rmod,cid,6,0.	! PINB
rmod,cid,10,0.	! CNOF
rmod,cid,12,0.	! FKT
rmod,cid,36,36	! WB DSID
nsel,all
esel,all
/wb,contact,end            !  done creating contacts
/golist
/wb,load,start             !  starting to send loads
/com,*********** Fixed Supports ***********
CMBLOCK,_FIXEDSU,NODE,     1301
(8i10)
      8121      8122      8123      8124      8125      8126      8127      8128
      8129      8130      8131      8132      8133      8134      8135      8136
      8137      8138      8139      8140      8141      8142      8143      8144
      8145      8146      8147      8148      8149      8150      8151      8152
      8153      8154      8155      8156      8157      8158      8159      8160
      8161      8162      8163      8164      8165      8166      8167      8168
      8169      8170      8171      8172      8173      8174      8175      8176
      8177      8178      8179      8180      8181      8182      8183      8184
      8185      8186      8187      8188      8189      8190      8191      8192
      8193      8194      8195      8196      8197      8198      8199      8200
      8201      8202      8203      8204      8205      8206      8207      8208
      8209      8210      8211      8212      8213      8214      8215      8216
      8217      8218      8219      8220      8221      8222      8223      8224
      8225      8226      8227      8228      8229      8230      8231      8232
      8233      8234      8235      8236      8237      8238      8239      8240
      8241      8242      8243      8244      8245      8246      8247      8248
      8249      8250      8251      8252      8253      8254      8255      8256
      8257      8258      8259      8260      8261      8262      8263      8264
      8265      8266      8267      8268      8269      8270      8271      8272
      8273      8274      8275      8276      8277      8278      8279      8280
! ... 143 like lines cut
cmsel,s,_FIXEDSU
d,all,all
nsel,all
nsel,all
/com,*********** Create Displacement Tables and Functions ******

*DIM,_loadvari48xp,TABLE,2,1,1,TIME,
! Time values
_loadvari48xp(1,0,1) = 0.
_loadvari48xp(2,0,1) = 1.
! Load values
_loadvari48xp(1,1,1) = 0.
_loadvari48xp(2,1,1) = 1.5e-002


*DIM,_loadvari48xn,TABLE,2,1,1,TIME,
! Time values
_loadvari48xn(1,0,1) = 0.
_loadvari48xn(2,0,1) = 1.
! Load values
_loadvari48xn(1,1,1) = -0.
_loadvari48xn(2,1,1) = -1.5e-002

/gst,on,on
fini
*get,_numnode,node,0,count
*get,_numelem,elem,0,count
*get, _MAXELEMNUM, elem, 0, NUM, MAX
*get, _MAXNODENUM, node, 0, NUM, MAX
*get, _MAXELEMTYPE, etyp, 0, NUM, MAX
*get, _MAXREALCONST, real, 0, NUM, MAX
/go
/wb,load,end               !  done creating loads
/com,--- Number of total nodes = %_numnode%
/com,--- Number of contact elements = 1000
/com,--- Number of spring elements = 0
/com,--- Number of bearing elements = 0
/com,--- Number of solid elements = 5000
/com,--- Number of total elements = %_numelem%
*get,_wallbsol,active,,time,wall
/com,****************************************************************************
/com,*************************    SOLUTION       ********************************
/com,****************************************************************************
/solu
antype,4                   ! transient analysis
nlgeom,on                  ! Turn on Large Deformation Effects
kbc,1                      ! stepped BC's
eqsl,pcg,1e-8,,,,,,1
cntr,print,1               ! print out contact info and also make no initial contact an error
trnopt,full,,,,,hht        ! HHT time integration method
tintp,0.1	! Numerical Damping
nldiag,cont,iter           ! print out contact info each equilibrium iteration
resc,define,last,last,,dele	   ! Program Controlled
/com,****************************************************
/com,******************* SOLVE FOR LS 1 ****************
/com,*********** Create Acceleration ***********

*DIM,_acelx,TABLE,1,1,1,TIME,
! Time values
_acelx(1,0,1) = 1.
! Load values
_acelx(1,1,1) = 0.


*DIM,_acely,TABLE,1,1,1,TIME,
! Time values
_acely(1,0,1) = 1.
! Load values
_acely(1,1,1) = 0.


*DIM,_acelz,TABLE,1,1,1,TIME,
! Time values
_acelz(1,0,1) = 1.
! Load values
_acelz(1,1,1) = 9.80665

acel,%_acelx%,%_acely%,%_acelz%
/com,*** Set Displacements ***
CMBLOCK,_CM48UX_XP,NODE,      341
(8i10)
       921       922       923       924       925       926       927       928
       929       930       931       932       933       934       935       936
       937       938       939       940       941       942       943       944
       945       946       947       948       949       950       951       952
       953       954       955       956       957       958       959       960
       961       962       963       964       965       966       967       968
       969       970       971       972       973       974       975       976
       977       978       979       980       981       982       983       984
       985       986       987       988       989       990       991       992
       993       994       995       996       997       998       999      1000
      1001      1002      1003      1004      1005      1006      1007      1008
      1009      1010      1011      1012      1013      1014      1015      1016
      1017      1018      1019      1020      1021      1022      1023      1024
      1025      1026      1027      1028      1029      1030      1031      1032
      1033      1034      1035      1036      1037      1038      1039      1040
      1041      4181      4182      4183      4184      4185      4186      4187
      4188      4189      4190      4191      4192      4193      4194      4195
      4196      4197      4198      4199      4200      4201      4202      4203
      4204      4205      4206      4207      4208      4209      4210      4211
      4212      4213      4214      4215      4216      4217      4218      4219
! ... 23 like lines cut
cmsel,s,_CM48UX_XP
d,all,ux,%_loadvari48xp%
nsel,all
/nopr
/gopr
autots,on                   ! User turned on automatic time stepping
deltim,0.01,0.001,0.05,OFF
time,1.
timint,on                  ! Turn on time integration effects
outres,erase
outres,all,none
outres,nsol,all
outres,rsol,all
outres,strs,all
outres,epel,all
outres,eppl,all
outres,v,all
outres,a,all
stabilize,off                   ! Stabilization turned OFF by user
! *********** WB SOLVE COMMAND ***********
! check interactive state
*get,ANSINTER_,active,,int
*if,ANSINTER_,ne,0,then
/eof
*endif
solve
/com *************** Write FE CONNECTORS ********* 
CEWRITE,file,ce,,INTE
/com,****************************************************
/com,*************** FINISHED SOLVE FOR LS 1 *************
*set,_DS_PROGRESS          ! turn off progress updates to avoid virus scanning bug
*get,_wallasol,active,,time,wall
/nopr
*get,_numnode,node,0,count
*get,_numelem,elem,0,count
*get, _MAXELEMNUM, elem, 0, NUM, MAX
*get, _MAXNODENUM, node, 0, NUM, MAX,,,INTERNAL
*get, _MAXELEMTYPE, etyp, 0, NUM, MAX
*get, _MAXREALCONST, real, 0, NUM, MAX
/gopr
*get,_PCGITER,active,,solu,cgiter
/post1
xmlo,ENCODING,ISO-8859-1
xmlo,parm
/xml,parm,xml
fini
/gopr
*get,_walldone,active,,time,wall
_preptime=(_wallbsol-_wallstrt)*3600
_solvtime=(_wallasol-_wallbsol)*3600
_posttime=(_walldone-_wallasol)*3600
_totaltim=(_walldone-_wallstrt)*3600
/wb,file,end               ! done with WB generated input
